data_stw-00

_audit_creation_method RASPA-1.0
_audit_creation_date 2017-3-17
_audit_author_name 'axolotlol'

_cell_length_a    11.9412
_cell_length_b    11.9412
_cell_length_c    29.4009
_cell_angle_alpha 90
_cell_angle_beta  90
_cell_angle_gamma 120
_cell_volume      14522.7

_symmetry_cell_setting          triclinic
_symmetry_space_group_name_Hall 'P 1'
_symmetry_space_group_name_H-M  'P 1'
_symmetry_Int_Tables_number     1

_symmetry_equiv_pos_as_xyz 'x,y,z'

loop_
_atom_site_label
_atom_site_type_symbol
_atom_site_fract_x
_atom_site_fract_y
_atom_site_fract_z
_atom_site_charge
O        O      0.463375000000     0.498400000000     0.000960000000     0.6        
O        O      0.498175000000     0.463600000000     0.334290000000     0.6        
O        O      0.032980000000     0.033205000000     0.667620000000     0.6        
O        O      0.032980000000     0.498405000000     0.500960000000     0.6        
O        O      0.498175000000     0.033205000000     0.834290000000     0.6        
O        O      0.463375000000     0.463600000000     0.167620000000     0.6        
O        O      0.168030000000     0.288330000000     0.334150000000     0.6        
O        O      0.208250000000     0.378330000000     0.667490000000     0.6        
O        O      0.118250000000     0.328550000000     0.000820000000     0.6        
O        O      0.328325000000     0.208475000000     0.834150000000     0.6        
O        O      0.288105000000     0.118480000000     0.167490000000     0.6        
O        O      0.378100000000     0.168255000000     0.500820000000     0.6        
O        O      0.288105000000     0.168255000000     0.001100000000     0.6        
O        O      0.378100000000     0.208475000000     0.667760000000     0.6        
O        O      0.328325000000     0.118480000000     0.334430000000     0.6        
O        O      0.208250000000     0.328550000000     0.501090000000     0.6        
O        O      0.118255000000     0.288335000000     0.167760000000     0.6        
O        O      0.168030000000     0.378325000000     0.834430000000     0.6        
O        O      0.061410000000     0.104720000000     0.973610000000     0.6        
O        O      0.391865000000     0.455320000000     0.306940000000     0.6        
O        O      0.041260000000     0.435175000000     0.640280000000     0.6        
O        O      0.434945000000     0.392090000000     0.473610000000     0.6        
O        O      0.104490000000     0.041485000000     0.806940000000     0.6        
O        O      0.455095000000     0.061635000000     0.140280000000     0.6        
O        O      0.104490000000     0.061635000000     0.361640000000     0.6        
O        O      0.455090000000     0.392085000000     0.028300000000     0.6        
O        O      0.434945000000     0.041485000000     0.694970000000     0.6        
O        O      0.391865000000     0.435170000000     0.861640000000     0.6        
O        O      0.041260000000     0.104720000000     0.528300000000     0.6        
O        O      0.061410000000     0.455320000000     0.194970000000     0.6        
O        O      0.464145000000     0.430340000000     0.250960000000     0.6        
O        O      0.066240000000     0.032435000000     0.584290000000     0.6        
O        O      0.464145000000     0.032435000000     0.917620000000     0.6        
O        O      0.032210000000     0.066470000000     0.750960000000     0.6        
O        O      0.430115000000     0.464370000000     0.084290000000     0.6        
O        O      0.032210000000     0.464370000000     0.417620000000     0.6        
O        O      0.449495000000     0.100370000000     0.980380000000     0.6        
O        O      0.396210000000     0.347760000000     0.313710000000     0.6        
O        O      0.148825000000     0.047085000000     0.647050000000     0.6        
O        O      0.046855000000     0.396440000000     0.480380000000     0.6        
O        O      0.100145000000     0.149050000000     0.813710000000     0.6        
O        O      0.347530000000     0.449725000000     0.147050000000     0.6        
O        O      0.100145000000     0.449725000000     0.354870000000     0.6        
O        O      0.347530000000     0.396435000000     0.021530000000     0.6        
O        O      0.046855000000     0.149050000000     0.688200000000     0.6        
O        O      0.396210000000     0.047085000000     0.854870000000     0.6        
O        O      0.148825000000     0.100370000000     0.521530000000     0.6        
O        O      0.449500000000     0.347760000000     0.188200000000     0.6        
O        O      0.159545000000     0.321140000000     0.250960000000     0.6        
O        O      0.175440000000     0.337035000000     0.584290000000     0.6        
O        O      0.159545000000     0.337035000000     0.917620000000     0.6        
O        O      0.336810000000     0.175665000000     0.750960000000     0.6        
O        O      0.320910000000     0.159770000000     0.084290000000     0.6        
O        O      0.336810000000     0.159770000000     0.417620000000     0.6        
O        O      0.185470000000     0.162940000000     0.971600000000     0.6        
O        O      0.333640000000     0.021160000000     0.304940000000     0.6        
O        O      0.475420000000     0.311110000000     0.638270000000     0.6        
O        O      0.310885000000     0.333870000000     0.471600000000     0.6        
O        O      0.162715000000     0.475645000000     0.804940000000     0.6        
O        O      0.020935000000     0.185700000000     0.138270000000     0.6        
O        O      0.162715000000     0.185700000000     0.363640000000     0.6        
O        O      0.020935000000     0.333865000000     0.030310000000     0.6        
O        O      0.310885000000     0.475645000000     0.696980000000     0.6        
O        O      0.333640000000     0.311110000000     0.863640000000     0.6        
O        O      0.475420000000     0.162940000000     0.530310000000     0.6        
O        O      0.185470000000     0.021160000000     0.196980000000     0.6        
O        O      0.383835000000     0.150040000000     0.011580000000     0.6        
O        O      0.346540000000     0.232425000000     0.344910000000     0.6        
O        O      0.264155000000     0.112745000000     0.678240000000     0.6        
O        O      0.112515000000     0.346765000000     0.511580000000     0.6        
O        O      0.149815000000     0.264385000000     0.844910000000     0.6        
O        O      0.232200000000     0.384065000000     0.178240000000     0.6        
O        O      0.149815000000     0.384065000000     0.323670000000     0.6        
O        O      0.232195000000     0.346765000000     0.990340000000     0.6        
O        O      0.112515000000     0.264385000000     0.657000000000     0.6        
O        O      0.346540000000     0.112745000000     0.823670000000     0.6        
O        O      0.264155000000     0.150045000000     0.490340000000     0.6        
O        O      0.383835000000     0.232425000000     0.157000000000     0.6        
O        O      0.391010000000     0.266050000000     0.029010000000     0.6        
O        O      0.230530000000     0.123590000000     0.362350000000     0.6        
O        O      0.372990000000     0.105570000000     0.695680000000     0.6        
O        O      0.105340000000     0.230755000000     0.529010000000     0.6        
O        O      0.265825000000     0.373215000000     0.862350000000     0.6        
O        O      0.123365000000     0.391240000000     0.195680000000     0.6        
O        O      0.265825000000     0.391240000000     0.306230000000     0.6        
O        O      0.123365000000     0.230755000000     0.972900000000     0.6        
O        O      0.105340000000     0.373215000000     0.639570000000     0.6        
O        O      0.230530000000     0.105570000000     0.806240000000     0.6        
O        O      0.372990000000     0.266055000000     0.472900000000     0.6        
O        O      0.391015000000     0.123590000000     0.139570000000     0.6        
O        O      0.114150000000     0.159345000000     0.898840000000     0.6        
O        O      0.337235000000     0.453435000000     0.232180000000     0.6        
O        O      0.043145000000     0.382430000000     0.565510000000     0.6        
O        O      0.382205000000     0.337465000000     0.398840000000     0.6        
O        O      0.159120000000     0.043375000000     0.732180000000     0.6        
O        O      0.453205000000     0.114375000000     0.065510000000     0.6        
O        O      0.159120000000     0.114375000000     0.436400000000     0.6        
O        O      0.453205000000     0.337460000000     0.103070000000     0.6        
O        O      0.382205000000     0.043375000000     0.769740000000     0.6        
O        O      0.337235000000     0.382430000000     0.936400000000     0.6        
O        O      0.043145000000     0.159345000000     0.603070000000     0.6        
O        O      0.114150000000     0.453435000000     0.269740000000     0.6        
O        O      0.292625000000     0.277470000000     0.991690000000     0.6        
O        O      0.219110000000     0.013790000000     0.325020000000     0.6        
O        O      0.482790000000     0.203955000000     0.658360000000     0.6        
O        O      0.203725000000     0.219340000000     0.491690000000     0.6        
O        O      0.277245000000     0.483015000000     0.825020000000     0.6        
O        O      0.013565000000     0.292855000000     0.158360000000     0.6        
O        O      0.277245000000     0.292855000000     0.343560000000     0.6        
O        O      0.013560000000     0.219335000000     0.010220000000     0.6        
O        O      0.203725000000     0.483020000000     0.676890000000     0.6        
O        O      0.219110000000     0.203950000000     0.843560000000     0.6        
O        O      0.482790000000     0.277470000000     0.510220000000     0.6        
O        O      0.292630000000     0.013790000000     0.176890000000     0.6        
O        O      0.290215000000     0.082485000000     0.250960000000     0.6        
O        O      0.414100000000     0.206365000000     0.584290000000     0.6        
O        O      0.290215000000     0.206365000000     0.917620000000     0.6        
O        O      0.206140000000     0.414325000000     0.750960000000     0.6        
O        O      0.082255000000     0.290440000000     0.084290000000     0.6        
O        O      0.206140000000     0.290445000000     0.417620000000     0.6        
O        O      0.463375000000     0.998400000000     0.000960000000     0.6        
O        O      0.498175000000     0.963600000000     0.334290000000     0.6        
O        O      0.032980000000     0.533205000000     0.667620000000     0.6        
O        O      0.032980000000     0.998405000000     0.500960000000     0.6        
O        O      0.498175000000     0.533205000000     0.834290000000     0.6        
O        O      0.463375000000     0.963600000000     0.167620000000     0.6        
O        O      0.168030000000     0.788330000000     0.334150000000     0.6        
O        O      0.208250000000     0.878330000000     0.667490000000     0.6        
O        O      0.118250000000     0.828550000000     0.000820000000     0.6        
O        O      0.328325000000     0.708475000000     0.834150000000     0.6        
O        O      0.288105000000     0.618480000000     0.167490000000     0.6        
O        O      0.378100000000     0.668255000000     0.500820000000     0.6        
O        O      0.288105000000     0.668255000000     0.001100000000     0.6        
O        O      0.378100000000     0.708475000000     0.667760000000     0.6        
O        O      0.328325000000     0.618480000000     0.334430000000     0.6        
O        O      0.208250000000     0.828550000000     0.501090000000     0.6        
O        O      0.118255000000     0.788335000000     0.167760000000     0.6        
O        O      0.168030000000     0.878325000000     0.834430000000     0.6        
O        O      0.061410000000     0.604720000000     0.973610000000     0.6        
O        O      0.391865000000     0.955320000000     0.306940000000     0.6        
O        O      0.041260000000     0.935175000000     0.640280000000     0.6        
O        O      0.434945000000     0.892090000000     0.473610000000     0.6        
O        O      0.104490000000     0.541485000000     0.806940000000     0.6        
O        O      0.455095000000     0.561635000000     0.140280000000     0.6        
O        O      0.104490000000     0.561635000000     0.361640000000     0.6        
O        O      0.455090000000     0.892085000000     0.028300000000     0.6        
O        O      0.434945000000     0.541485000000     0.694970000000     0.6        
O        O      0.391865000000     0.935170000000     0.861640000000     0.6        
O        O      0.041260000000     0.604720000000     0.528300000000     0.6        
O        O      0.061410000000     0.955320000000     0.194970000000     0.6        
O        O      0.464145000000     0.930340000000     0.250960000000     0.6        
O        O      0.066240000000     0.532435000000     0.584290000000     0.6        
O        O      0.464145000000     0.532435000000     0.917620000000     0.6        
O        O      0.032210000000     0.566470000000     0.750960000000     0.6        
O        O      0.430115000000     0.964370000000     0.084290000000     0.6        
O        O      0.032210000000     0.964370000000     0.417620000000     0.6        
O        O      0.449495000000     0.600370000000     0.980380000000     0.6        
O        O      0.396210000000     0.847760000000     0.313710000000     0.6        
O        O      0.148825000000     0.547085000000     0.647050000000     0.6        
O        O      0.046855000000     0.896440000000     0.480380000000     0.6        
O        O      0.100145000000     0.649050000000     0.813710000000     0.6        
O        O      0.347530000000     0.949725000000     0.147050000000     0.6        
O        O      0.100145000000     0.949725000000     0.354870000000     0.6        
O        O      0.347530000000     0.896435000000     0.021530000000     0.6        
O        O      0.046855000000     0.649050000000     0.688200000000     0.6        
O        O      0.396210000000     0.547085000000     0.854870000000     0.6        
O        O      0.148825000000     0.600370000000     0.521530000000     0.6        
O        O      0.449500000000     0.847760000000     0.188200000000     0.6        
O        O      0.159545000000     0.821140000000     0.250960000000     0.6        
O        O      0.175440000000     0.837035000000     0.584290000000     0.6        
O        O      0.159545000000     0.837035000000     0.917620000000     0.6        
O        O      0.336810000000     0.675665000000     0.750960000000     0.6        
O        O      0.320910000000     0.659770000000     0.084290000000     0.6        
O        O      0.336810000000     0.659770000000     0.417620000000     0.6        
O        O      0.185470000000     0.662940000000     0.971600000000     0.6        
O        O      0.333640000000     0.521160000000     0.304940000000     0.6        
O        O      0.475420000000     0.811110000000     0.638270000000     0.6        
O        O      0.310885000000     0.833870000000     0.471600000000     0.6        
O        O      0.162715000000     0.975645000000     0.804940000000     0.6        
O        O      0.020935000000     0.685700000000     0.138270000000     0.6        
O        O      0.162715000000     0.685700000000     0.363640000000     0.6        
O        O      0.020935000000     0.833865000000     0.030310000000     0.6        
O        O      0.310885000000     0.975645000000     0.696980000000     0.6        
O        O      0.333640000000     0.811110000000     0.863640000000     0.6        
O        O      0.475420000000     0.662940000000     0.530310000000     0.6        
O        O      0.185470000000     0.521160000000     0.196980000000     0.6        
O        O      0.383835000000     0.650040000000     0.011580000000     0.6        
O        O      0.346540000000     0.732425000000     0.344910000000     0.6        
O        O      0.264155000000     0.612745000000     0.678240000000     0.6        
O        O      0.112515000000     0.846765000000     0.511580000000     0.6        
O        O      0.149815000000     0.764385000000     0.844910000000     0.6        
O        O      0.232200000000     0.884065000000     0.178240000000     0.6        
O        O      0.149815000000     0.884065000000     0.323670000000     0.6        
O        O      0.232195000000     0.846765000000     0.990340000000     0.6        
O        O      0.112515000000     0.764385000000     0.657000000000     0.6        
O        O      0.346540000000     0.612745000000     0.823670000000     0.6        
O        O      0.264155000000     0.650045000000     0.490340000000     0.6        
O        O      0.383835000000     0.732425000000     0.157000000000     0.6        
O        O      0.391010000000     0.766050000000     0.029010000000     0.6        
O        O      0.230530000000     0.623590000000     0.362350000000     0.6        
O        O      0.372990000000     0.605570000000     0.695680000000     0.6        
O        O      0.105340000000     0.730755000000     0.529010000000     0.6        
O        O      0.265825000000     0.873215000000     0.862350000000     0.6        
O        O      0.123365000000     0.891240000000     0.195680000000     0.6        
O        O      0.265825000000     0.891240000000     0.306230000000     0.6        
O        O      0.123365000000     0.730755000000     0.972900000000     0.6        
O        O      0.105340000000     0.873215000000     0.639570000000     0.6        
O        O      0.230530000000     0.605570000000     0.806240000000     0.6        
O        O      0.372990000000     0.766055000000     0.472900000000     0.6        
O        O      0.391015000000     0.623590000000     0.139570000000     0.6        
O        O      0.114150000000     0.659345000000     0.898840000000     0.6        
O        O      0.337235000000     0.953435000000     0.232180000000     0.6        
O        O      0.043145000000     0.882430000000     0.565510000000     0.6        
O        O      0.382205000000     0.837465000000     0.398840000000     0.6        
O        O      0.159120000000     0.543375000000     0.732180000000     0.6        
O        O      0.453205000000     0.614375000000     0.065510000000     0.6        
O        O      0.159120000000     0.614375000000     0.436400000000     0.6        
O        O      0.453205000000     0.837460000000     0.103070000000     0.6        
O        O      0.382205000000     0.543375000000     0.769740000000     0.6        
O        O      0.337235000000     0.882430000000     0.936400000000     0.6        
O        O      0.043145000000     0.659345000000     0.603070000000     0.6        
O        O      0.114150000000     0.953435000000     0.269740000000     0.6        
O        O      0.292625000000     0.777470000000     0.991690000000     0.6        
O        O      0.219110000000     0.513790000000     0.325020000000     0.6        
O        O      0.482790000000     0.703955000000     0.658360000000     0.6        
O        O      0.203725000000     0.719340000000     0.491690000000     0.6        
O        O      0.277245000000     0.983015000000     0.825020000000     0.6        
O        O      0.013565000000     0.792855000000     0.158360000000     0.6        
O        O      0.277245000000     0.792855000000     0.343560000000     0.6        
O        O      0.013560000000     0.719335000000     0.010220000000     0.6        
O        O      0.203725000000     0.983020000000     0.676890000000     0.6        
O        O      0.219110000000     0.703950000000     0.843560000000     0.6        
O        O      0.482790000000     0.777470000000     0.510220000000     0.6        
O        O      0.292630000000     0.513790000000     0.176890000000     0.6        
O        O      0.290215000000     0.582485000000     0.250960000000     0.6        
O        O      0.414100000000     0.706365000000     0.584290000000     0.6        
O        O      0.290215000000     0.706365000000     0.917620000000     0.6        
O        O      0.206140000000     0.914325000000     0.750960000000     0.6        
O        O      0.082255000000     0.790440000000     0.084290000000     0.6        
O        O      0.206140000000     0.790445000000     0.417620000000     0.6        
O        O      0.963375000000     0.498400000000     0.000960000000     0.6        
O        O      0.998175000000     0.463600000000     0.334290000000     0.6        
O        O      0.532980000000     0.033205000000     0.667620000000     0.6        
O        O      0.532980000000     0.498405000000     0.500960000000     0.6        
O        O      0.998175000000     0.033205000000     0.834290000000     0.6        
O        O      0.963375000000     0.463600000000     0.167620000000     0.6        
O        O      0.668030000000     0.288330000000     0.334150000000     0.6        
O        O      0.708250000000     0.378330000000     0.667490000000     0.6        
O        O      0.618250000000     0.328550000000     0.000820000000     0.6        
O        O      0.828325000000     0.208475000000     0.834150000000     0.6        
O        O      0.788105000000     0.118480000000     0.167490000000     0.6        
O        O      0.878100000000     0.168255000000     0.500820000000     0.6        
O        O      0.788105000000     0.168255000000     0.001100000000     0.6        
O        O      0.878100000000     0.208475000000     0.667760000000     0.6        
O        O      0.828325000000     0.118480000000     0.334430000000     0.6        
O        O      0.708250000000     0.328550000000     0.501090000000     0.6        
O        O      0.618255000000     0.288335000000     0.167760000000     0.6        
O        O      0.668030000000     0.378325000000     0.834430000000     0.6        
O        O      0.561410000000     0.104720000000     0.973610000000     0.6        
O        O      0.891865000000     0.455320000000     0.306940000000     0.6        
O        O      0.541260000000     0.435175000000     0.640280000000     0.6        
O        O      0.934945000000     0.392090000000     0.473610000000     0.6        
O        O      0.604490000000     0.041485000000     0.806940000000     0.6        
O        O      0.955095000000     0.061635000000     0.140280000000     0.6        
O        O      0.604490000000     0.061635000000     0.361640000000     0.6        
O        O      0.955090000000     0.392085000000     0.028300000000     0.6        
O        O      0.934945000000     0.041485000000     0.694970000000     0.6        
O        O      0.891865000000     0.435170000000     0.861640000000     0.6        
O        O      0.541260000000     0.104720000000     0.528300000000     0.6        
O        O      0.561410000000     0.455320000000     0.194970000000     0.6        
O        O      0.964145000000     0.430340000000     0.250960000000     0.6        
O        O      0.566240000000     0.032435000000     0.584290000000     0.6        
O        O      0.964145000000     0.032435000000     0.917620000000     0.6        
O        O      0.532210000000     0.066470000000     0.750960000000     0.6        
O        O      0.930115000000     0.464370000000     0.084290000000     0.6        
O        O      0.532210000000     0.464370000000     0.417620000000     0.6        
O        O      0.949495000000     0.100370000000     0.980380000000     0.6        
O        O      0.896210000000     0.347760000000     0.313710000000     0.6        
O        O      0.648825000000     0.047085000000     0.647050000000     0.6        
O        O      0.546855000000     0.396440000000     0.480380000000     0.6        
O        O      0.600145000000     0.149050000000     0.813710000000     0.6        
O        O      0.847530000000     0.449725000000     0.147050000000     0.6        
O        O      0.600145000000     0.449725000000     0.354870000000     0.6        
O        O      0.847530000000     0.396435000000     0.021530000000     0.6        
O        O      0.546855000000     0.149050000000     0.688200000000     0.6        
O        O      0.896210000000     0.047085000000     0.854870000000     0.6        
O        O      0.648825000000     0.100370000000     0.521530000000     0.6        
O        O      0.949500000000     0.347760000000     0.188200000000     0.6        
O        O      0.659545000000     0.321140000000     0.250960000000     0.6        
O        O      0.675440000000     0.337035000000     0.584290000000     0.6        
O        O      0.659545000000     0.337035000000     0.917620000000     0.6        
O        O      0.836810000000     0.175665000000     0.750960000000     0.6        
O        O      0.820910000000     0.159770000000     0.084290000000     0.6        
O        O      0.836810000000     0.159770000000     0.417620000000     0.6        
O        O      0.685470000000     0.162940000000     0.971600000000     0.6        
O        O      0.833640000000     0.021160000000     0.304940000000     0.6        
O        O      0.975420000000     0.311110000000     0.638270000000     0.6        
O        O      0.810885000000     0.333870000000     0.471600000000     0.6        
O        O      0.662715000000     0.475645000000     0.804940000000     0.6        
O        O      0.520935000000     0.185700000000     0.138270000000     0.6        
O        O      0.662715000000     0.185700000000     0.363640000000     0.6        
O        O      0.520935000000     0.333865000000     0.030310000000     0.6        
O        O      0.810885000000     0.475645000000     0.696980000000     0.6        
O        O      0.833640000000     0.311110000000     0.863640000000     0.6        
O        O      0.975420000000     0.162940000000     0.530310000000     0.6        
O        O      0.685470000000     0.021160000000     0.196980000000     0.6        
O        O      0.883835000000     0.150040000000     0.011580000000     0.6        
O        O      0.846540000000     0.232425000000     0.344910000000     0.6        
O        O      0.764155000000     0.112745000000     0.678240000000     0.6        
O        O      0.612515000000     0.346765000000     0.511580000000     0.6        
O        O      0.649815000000     0.264385000000     0.844910000000     0.6        
O        O      0.732200000000     0.384065000000     0.178240000000     0.6        
O        O      0.649815000000     0.384065000000     0.323670000000     0.6        
O        O      0.732195000000     0.346765000000     0.990340000000     0.6        
O        O      0.612515000000     0.264385000000     0.657000000000     0.6        
O        O      0.846540000000     0.112745000000     0.823670000000     0.6        
O        O      0.764155000000     0.150045000000     0.490340000000     0.6        
O        O      0.883835000000     0.232425000000     0.157000000000     0.6        
O        O      0.891010000000     0.266050000000     0.029010000000     0.6        
O        O      0.730530000000     0.123590000000     0.362350000000     0.6        
O        O      0.872990000000     0.105570000000     0.695680000000     0.6        
O        O      0.605340000000     0.230755000000     0.529010000000     0.6        
O        O      0.765825000000     0.373215000000     0.862350000000     0.6        
O        O      0.623365000000     0.391240000000     0.195680000000     0.6        
O        O      0.765825000000     0.391240000000     0.306230000000     0.6        
O        O      0.623365000000     0.230755000000     0.972900000000     0.6        
O        O      0.605340000000     0.373215000000     0.639570000000     0.6        
O        O      0.730530000000     0.105570000000     0.806240000000     0.6        
O        O      0.872990000000     0.266055000000     0.472900000000     0.6        
O        O      0.891015000000     0.123590000000     0.139570000000     0.6        
O        O      0.614150000000     0.159345000000     0.898840000000     0.6        
O        O      0.837235000000     0.453435000000     0.232180000000     0.6        
O        O      0.543145000000     0.382430000000     0.565510000000     0.6        
O        O      0.882205000000     0.337465000000     0.398840000000     0.6        
O        O      0.659120000000     0.043375000000     0.732180000000     0.6        
O        O      0.953205000000     0.114375000000     0.065510000000     0.6        
O        O      0.659120000000     0.114375000000     0.436400000000     0.6        
O        O      0.953205000000     0.337460000000     0.103070000000     0.6        
O        O      0.882205000000     0.043375000000     0.769740000000     0.6        
O        O      0.837235000000     0.382430000000     0.936400000000     0.6        
O        O      0.543145000000     0.159345000000     0.603070000000     0.6        
O        O      0.614150000000     0.453435000000     0.269740000000     0.6        
O        O      0.792625000000     0.277470000000     0.991690000000     0.6        
O        O      0.719110000000     0.013790000000     0.325020000000     0.6        
O        O      0.982790000000     0.203955000000     0.658360000000     0.6        
O        O      0.703725000000     0.219340000000     0.491690000000     0.6        
O        O      0.777245000000     0.483015000000     0.825020000000     0.6        
O        O      0.513565000000     0.292855000000     0.158360000000     0.6        
O        O      0.777245000000     0.292855000000     0.343560000000     0.6        
O        O      0.513560000000     0.219335000000     0.010220000000     0.6        
O        O      0.703725000000     0.483020000000     0.676890000000     0.6        
O        O      0.719110000000     0.203950000000     0.843560000000     0.6        
O        O      0.982790000000     0.277470000000     0.510220000000     0.6        
O        O      0.792630000000     0.013790000000     0.176890000000     0.6        
O        O      0.790215000000     0.082485000000     0.250960000000     0.6        
O        O      0.914100000000     0.206365000000     0.584290000000     0.6        
O        O      0.790215000000     0.206365000000     0.917620000000     0.6        
O        O      0.706140000000     0.414325000000     0.750960000000     0.6        
O        O      0.582255000000     0.290440000000     0.084290000000     0.6        
O        O      0.706140000000     0.290445000000     0.417620000000     0.6        
O        O      0.963375000000     0.998400000000     0.000960000000     0.6        
O        O      0.998175000000     0.963600000000     0.334290000000     0.6        
O        O      0.532980000000     0.533205000000     0.667620000000     0.6        
O        O      0.532980000000     0.998405000000     0.500960000000     0.6        
O        O      0.998175000000     0.533205000000     0.834290000000     0.6        
O        O      0.963375000000     0.963600000000     0.167620000000     0.6        
O        O      0.668030000000     0.788330000000     0.334150000000     0.6        
O        O      0.708250000000     0.878330000000     0.667490000000     0.6        
O        O      0.618250000000     0.828550000000     0.000820000000     0.6        
O        O      0.828325000000     0.708475000000     0.834150000000     0.6        
O        O      0.788105000000     0.618480000000     0.167490000000     0.6        
O        O      0.878100000000     0.668255000000     0.500820000000     0.6        
O        O      0.788105000000     0.668255000000     0.001100000000     0.6        
O        O      0.878100000000     0.708475000000     0.667760000000     0.6        
O        O      0.828325000000     0.618480000000     0.334430000000     0.6        
O        O      0.708250000000     0.828550000000     0.501090000000     0.6        
O        O      0.618255000000     0.788335000000     0.167760000000     0.6        
O        O      0.668030000000     0.878325000000     0.834430000000     0.6        
O        O      0.561410000000     0.604720000000     0.973610000000     0.6        
O        O      0.891865000000     0.955320000000     0.306940000000     0.6        
O        O      0.541260000000     0.935175000000     0.640280000000     0.6        
O        O      0.934945000000     0.892090000000     0.473610000000     0.6        
O        O      0.604490000000     0.541485000000     0.806940000000     0.6        
O        O      0.955095000000     0.561635000000     0.140280000000     0.6        
O        O      0.604490000000     0.561635000000     0.361640000000     0.6        
O        O      0.955090000000     0.892085000000     0.028300000000     0.6        
O        O      0.934945000000     0.541485000000     0.694970000000     0.6        
O        O      0.891865000000     0.935170000000     0.861640000000     0.6        
O        O      0.541260000000     0.604720000000     0.528300000000     0.6        
O        O      0.561410000000     0.955320000000     0.194970000000     0.6        
O        O      0.964145000000     0.930340000000     0.250960000000     0.6        
O        O      0.566240000000     0.532435000000     0.584290000000     0.6        
O        O      0.964145000000     0.532435000000     0.917620000000     0.6        
O        O      0.532210000000     0.566470000000     0.750960000000     0.6        
O        O      0.930115000000     0.964370000000     0.084290000000     0.6        
O        O      0.532210000000     0.964370000000     0.417620000000     0.6        
O        O      0.949495000000     0.600370000000     0.980380000000     0.6        
O        O      0.896210000000     0.847760000000     0.313710000000     0.6        
O        O      0.648825000000     0.547085000000     0.647050000000     0.6        
O        O      0.546855000000     0.896440000000     0.480380000000     0.6        
O        O      0.600145000000     0.649050000000     0.813710000000     0.6        
O        O      0.847530000000     0.949725000000     0.147050000000     0.6        
O        O      0.600145000000     0.949725000000     0.354870000000     0.6        
O        O      0.847530000000     0.896435000000     0.021530000000     0.6        
O        O      0.546855000000     0.649050000000     0.688200000000     0.6        
O        O      0.896210000000     0.547085000000     0.854870000000     0.6        
O        O      0.648825000000     0.600370000000     0.521530000000     0.6        
O        O      0.949500000000     0.847760000000     0.188200000000     0.6        
O        O      0.659545000000     0.821140000000     0.250960000000     0.6        
O        O      0.675440000000     0.837035000000     0.584290000000     0.6        
O        O      0.659545000000     0.837035000000     0.917620000000     0.6        
O        O      0.836810000000     0.675665000000     0.750960000000     0.6        
O        O      0.820910000000     0.659770000000     0.084290000000     0.6        
O        O      0.836810000000     0.659770000000     0.417620000000     0.6        
O        O      0.685470000000     0.662940000000     0.971600000000     0.6        
O        O      0.833640000000     0.521160000000     0.304940000000     0.6        
O        O      0.975420000000     0.811110000000     0.638270000000     0.6        
O        O      0.810885000000     0.833870000000     0.471600000000     0.6        
O        O      0.662715000000     0.975645000000     0.804940000000     0.6        
O        O      0.520935000000     0.685700000000     0.138270000000     0.6        
O        O      0.662715000000     0.685700000000     0.363640000000     0.6        
O        O      0.520935000000     0.833865000000     0.030310000000     0.6        
O        O      0.810885000000     0.975645000000     0.696980000000     0.6        
O        O      0.833640000000     0.811110000000     0.863640000000     0.6        
O        O      0.975420000000     0.662940000000     0.530310000000     0.6        
O        O      0.685470000000     0.521160000000     0.196980000000     0.6        
O        O      0.883835000000     0.650040000000     0.011580000000     0.6        
O        O      0.846540000000     0.732425000000     0.344910000000     0.6        
O        O      0.764155000000     0.612745000000     0.678240000000     0.6        
O        O      0.612515000000     0.846765000000     0.511580000000     0.6        
O        O      0.649815000000     0.764385000000     0.844910000000     0.6        
O        O      0.732200000000     0.884065000000     0.178240000000     0.6        
O        O      0.649815000000     0.884065000000     0.323670000000     0.6        
O        O      0.732195000000     0.846765000000     0.990340000000     0.6        
O        O      0.612515000000     0.764385000000     0.657000000000     0.6        
O        O      0.846540000000     0.612745000000     0.823670000000     0.6        
O        O      0.764155000000     0.650045000000     0.490340000000     0.6        
O        O      0.883835000000     0.732425000000     0.157000000000     0.6        
O        O      0.891010000000     0.766050000000     0.029010000000     0.6        
O        O      0.730530000000     0.623590000000     0.362350000000     0.6        
O        O      0.872990000000     0.605570000000     0.695680000000     0.6        
O        O      0.605340000000     0.730755000000     0.529010000000     0.6        
O        O      0.765825000000     0.873215000000     0.862350000000     0.6        
O        O      0.623365000000     0.891240000000     0.195680000000     0.6        
O        O      0.765825000000     0.891240000000     0.306230000000     0.6        
O        O      0.623365000000     0.730755000000     0.972900000000     0.6        
O        O      0.605340000000     0.873215000000     0.639570000000     0.6        
O        O      0.730530000000     0.605570000000     0.806240000000     0.6        
O        O      0.872990000000     0.766055000000     0.472900000000     0.6        
O        O      0.891015000000     0.623590000000     0.139570000000     0.6        
O        O      0.614150000000     0.659345000000     0.898840000000     0.6        
O        O      0.837235000000     0.953435000000     0.232180000000     0.6        
O        O      0.543145000000     0.882430000000     0.565510000000     0.6        
O        O      0.882205000000     0.837465000000     0.398840000000     0.6        
O        O      0.659120000000     0.543375000000     0.732180000000     0.6        
O        O      0.953205000000     0.614375000000     0.065510000000     0.6        
O        O      0.659120000000     0.614375000000     0.436400000000     0.6        
O        O      0.953205000000     0.837460000000     0.103070000000     0.6        
O        O      0.882205000000     0.543375000000     0.769740000000     0.6        
O        O      0.837235000000     0.882430000000     0.936400000000     0.6        
O        O      0.543145000000     0.659345000000     0.603070000000     0.6        
O        O      0.614150000000     0.953435000000     0.269740000000     0.6        
O        O      0.792625000000     0.777470000000     0.991690000000     0.6        
O        O      0.719110000000     0.513790000000     0.325020000000     0.6        
O        O      0.982790000000     0.703955000000     0.658360000000     0.6        
O        O      0.703725000000     0.719340000000     0.491690000000     0.6        
O        O      0.777245000000     0.983015000000     0.825020000000     0.6        
O        O      0.513565000000     0.792855000000     0.158360000000     0.6        
O        O      0.777245000000     0.792855000000     0.343560000000     0.6        
O        O      0.513560000000     0.719335000000     0.010220000000     0.6        
O        O      0.703725000000     0.983020000000     0.676890000000     0.6        
O        O      0.719110000000     0.703950000000     0.843560000000     0.6        
O        O      0.982790000000     0.777470000000     0.510220000000     0.6        
O        O      0.792630000000     0.513790000000     0.176890000000     0.6        
O        O      0.790215000000     0.582485000000     0.250960000000     0.6        
O        O      0.914100000000     0.706365000000     0.584290000000     0.6        
O        O      0.790215000000     0.706365000000     0.917620000000     0.6        
O        O      0.706140000000     0.914325000000     0.750960000000     0.6        
O        O      0.582255000000     0.790440000000     0.084290000000     0.6        
O        O      0.706140000000     0.790445000000     0.417620000000     0.6        
F        F      0.224600000000     0.451250000000     0.250960000000     0.6        
F        F      0.045330000000     0.271980000000     0.584290000000     0.6        
F        F      0.224600000000     0.271980000000     0.917620000000     0.6        
F        F      0.271755000000     0.045555000000     0.750960000000     0.6        
F        F      0.451025000000     0.224825000000     0.084290000000     0.6        
F        F      0.271755000000     0.224830000000     0.417620000000     0.6        
F        F      0.224600000000     0.951250000000     0.250960000000     0.6        
F        F      0.045330000000     0.771980000000     0.584290000000     0.6        
F        F      0.224600000000     0.771980000000     0.917620000000     0.6        
F        F      0.271755000000     0.545555000000     0.750960000000     0.6        
F        F      0.451025000000     0.724825000000     0.084290000000     0.6        
F        F      0.271755000000     0.724830000000     0.417620000000     0.6        
F        F      0.724600000000     0.451250000000     0.250960000000     0.6        
F        F      0.545330000000     0.271980000000     0.584290000000     0.6        
F        F      0.724600000000     0.271980000000     0.917620000000     0.6        
F        F      0.771755000000     0.045555000000     0.750960000000     0.6        
F        F      0.951025000000     0.224825000000     0.084290000000     0.6        
F        F      0.771755000000     0.224830000000     0.417620000000     0.6        
F        F      0.724600000000     0.951250000000     0.250960000000     0.6        
F        F      0.545330000000     0.771980000000     0.584290000000     0.6        
F        F      0.724600000000     0.771980000000     0.917620000000     0.6        
F        F      0.771755000000     0.545555000000     0.750960000000     0.6        
F        F      0.951025000000     0.724825000000     0.084290000000     0.6        
F        F      0.771755000000     0.724830000000     0.417620000000     0.6        
Si       Si     0.349800000000     0.187850000000     0.033890000000     0.6        
Si       Si     0.308730000000     0.160580000000     0.367220000000     0.6        
Si       Si     0.336000000000     0.146780000000     0.700560000000     0.6        
Si       Si     0.146550000000     0.308955000000     0.533890000000     0.6        
Si       Si     0.187625000000     0.336225000000     0.867220000000     0.6        
Si       Si     0.160355000000     0.350030000000     0.200560000000     0.6        
Si       Si     0.187625000000     0.350030000000     0.301360000000     0.6        
Si       Si     0.160355000000     0.308955000000     0.968020000000     0.6        
Si       Si     0.146550000000     0.336225000000     0.634690000000     0.6        
Si       Si     0.308730000000     0.146775000000     0.801360000000     0.6        
Si       Si     0.336000000000     0.187855000000     0.468030000000     0.6        
Si       Si     0.349805000000     0.160580000000     0.134690000000     0.6        
Si       Si     0.263745000000     0.206660000000     0.968550000000     0.6        
Si       Si     0.289920000000     0.055715000000     0.301880000000     0.6        
Si       Si     0.440865000000     0.232835000000     0.635210000000     0.6        
Si       Si     0.232610000000     0.290145000000     0.468550000000     0.6        
Si       Si     0.206435000000     0.441095000000     0.801880000000     0.6        
Si       Si     0.055485000000     0.263970000000     0.135210000000     0.6        
Si       Si     0.206435000000     0.263970000000     0.366700000000     0.6        
Si       Si     0.055485000000     0.290145000000     0.033370000000     0.6        
Si       Si     0.232610000000     0.441095000000     0.700030000000     0.6        
Si       Si     0.289920000000     0.232835000000     0.866700000000     0.6        
Si       Si     0.440865000000     0.206660000000     0.533370000000     0.6        
Si       Si     0.263745000000     0.055715000000     0.200030000000     0.6        
Si       Si     0.149280000000     0.196975000000     0.852410000000     0.6        
Si       Si     0.299605000000     0.450935000000     0.185740000000     0.6        
Si       Si     0.045645000000     0.347300000000     0.519080000000     0.6        
Si       Si     0.347075000000     0.299835000000     0.352410000000     0.6        
Si       Si     0.196750000000     0.045870000000     0.685740000000     0.6        
Si       Si     0.450710000000     0.149505000000     0.019080000000     0.6        
Si       Si     0.196750000000     0.149505000000     0.482840000000     0.6        
Si       Si     0.450710000000     0.299835000000     0.149500000000     0.6        
Si       Si     0.347075000000     0.045870000000     0.816170000000     0.6        
Si       Si     0.299605000000     0.347300000000     0.982840000000     0.6        
Si       Si     0.045645000000     0.196975000000     0.649500000000     0.6        
Si       Si     0.149280000000     0.450935000000     0.316170000000     0.6        
Si       Si     0.124235000000     0.168135000000     0.953260000000     0.6        
Si       Si     0.328445000000     0.454730000000     0.286600000000     0.6        
Si       Si     0.041850000000     0.372345000000     0.619930000000     0.6        
Si       Si     0.372115000000     0.328670000000     0.453260000000     0.6        
Si       Si     0.167910000000     0.042075000000     0.786600000000     0.6        
Si       Si     0.454505000000     0.124465000000     0.119930000000     0.6        
Si       Si     0.167910000000     0.124465000000     0.381980000000     0.6        
Si       Si     0.454505000000     0.328670000000     0.048650000000     0.6        
Si       Si     0.372120000000     0.042075000000     0.715320000000     0.6        
Si       Si     0.328445000000     0.372345000000     0.881980000000     0.6        
Si       Si     0.041850000000     0.168135000000     0.548650000000     0.6        
Si       Si     0.124235000000     0.454730000000     0.215320000000     0.6        
Si       Si     0.484195000000     0.059140000000     0.968200000000     0.6        
Si       Si     0.437440000000     0.423685000000     0.301540000000     0.6        
Si       Si     0.072895000000     0.012385000000     0.634870000000     0.6        
Si       Si     0.012155000000     0.437665000000     0.468200000000     0.6        
Si       Si     0.058915000000     0.073120000000     0.801540000000     0.6        
Si       Si     0.423460000000     0.484425000000     0.134870000000     0.6        
Si       Si     0.058915000000     0.484425000000     0.367040000000     0.6        
Si       Si     0.423460000000     0.437665000000     0.033710000000     0.6        
Si       Si     0.012155000000     0.073120000000     0.700380000000     0.6        
Si       Si     0.437440000000     0.012380000000     0.867040000000     0.6        
Si       Si     0.072895000000     0.059145000000     0.533710000000     0.6        
Si       Si     0.484200000000     0.423685000000     0.200380000000     0.6        
Si       Si     0.349800000000     0.687850000000     0.033890000000     0.6        
Si       Si     0.308730000000     0.660580000000     0.367220000000     0.6        
Si       Si     0.336000000000     0.646780000000     0.700560000000     0.6        
Si       Si     0.146550000000     0.808955000000     0.533890000000     0.6        
Si       Si     0.187625000000     0.836225000000     0.867220000000     0.6        
Si       Si     0.160355000000     0.850030000000     0.200560000000     0.6        
Si       Si     0.187625000000     0.850030000000     0.301360000000     0.6        
Si       Si     0.160355000000     0.808955000000     0.968020000000     0.6        
Si       Si     0.146550000000     0.836225000000     0.634690000000     0.6        
Si       Si     0.308730000000     0.646775000000     0.801360000000     0.6        
Si       Si     0.336000000000     0.687855000000     0.468030000000     0.6        
Si       Si     0.349805000000     0.660580000000     0.134690000000     0.6        
Si       Si     0.263745000000     0.706660000000     0.968550000000     0.6        
Si       Si     0.289920000000     0.555715000000     0.301880000000     0.6        
Si       Si     0.440865000000     0.732835000000     0.635210000000     0.6        
Si       Si     0.232610000000     0.790145000000     0.468550000000     0.6        
Si       Si     0.206435000000     0.941095000000     0.801880000000     0.6        
Si       Si     0.055485000000     0.763970000000     0.135210000000     0.6        
Si       Si     0.206435000000     0.763970000000     0.366700000000     0.6        
Si       Si     0.055485000000     0.790145000000     0.033370000000     0.6        
Si       Si     0.232610000000     0.941095000000     0.700030000000     0.6        
Si       Si     0.289920000000     0.732835000000     0.866700000000     0.6        
Si       Si     0.440865000000     0.706660000000     0.533370000000     0.6        
Si       Si     0.263745000000     0.555715000000     0.200030000000     0.6        
Si       Si     0.149280000000     0.696975000000     0.852410000000     0.6        
Si       Si     0.299605000000     0.950935000000     0.185740000000     0.6        
Si       Si     0.045645000000     0.847300000000     0.519080000000     0.6        
Si       Si     0.347075000000     0.799835000000     0.352410000000     0.6        
Si       Si     0.196750000000     0.545870000000     0.685740000000     0.6        
Si       Si     0.450710000000     0.649505000000     0.019080000000     0.6        
Si       Si     0.196750000000     0.649505000000     0.482840000000     0.6        
Si       Si     0.450710000000     0.799835000000     0.149500000000     0.6        
Si       Si     0.347075000000     0.545870000000     0.816170000000     0.6        
Si       Si     0.299605000000     0.847300000000     0.982840000000     0.6        
Si       Si     0.045645000000     0.696975000000     0.649500000000     0.6        
Si       Si     0.149280000000     0.950935000000     0.316170000000     0.6        
Si       Si     0.124235000000     0.668135000000     0.953260000000     0.6        
Si       Si     0.328445000000     0.954730000000     0.286600000000     0.6        
Si       Si     0.041850000000     0.872345000000     0.619930000000     0.6        
Si       Si     0.372115000000     0.828670000000     0.453260000000     0.6        
Si       Si     0.167910000000     0.542075000000     0.786600000000     0.6        
Si       Si     0.454505000000     0.624465000000     0.119930000000     0.6        
Si       Si     0.167910000000     0.624465000000     0.381980000000     0.6        
Si       Si     0.454505000000     0.828670000000     0.048650000000     0.6        
Si       Si     0.372120000000     0.542075000000     0.715320000000     0.6        
Si       Si     0.328445000000     0.872345000000     0.881980000000     0.6        
Si       Si     0.041850000000     0.668135000000     0.548650000000     0.6        
Si       Si     0.124235000000     0.954730000000     0.215320000000     0.6        
Si       Si     0.484195000000     0.559140000000     0.968200000000     0.6        
Si       Si     0.437440000000     0.923685000000     0.301540000000     0.6        
Si       Si     0.072895000000     0.512385000000     0.634870000000     0.6        
Si       Si     0.012155000000     0.937665000000     0.468200000000     0.6        
Si       Si     0.058915000000     0.573120000000     0.801540000000     0.6        
Si       Si     0.423460000000     0.984425000000     0.134870000000     0.6        
Si       Si     0.058915000000     0.984425000000     0.367040000000     0.6        
Si       Si     0.423460000000     0.937665000000     0.033710000000     0.6        
Si       Si     0.012155000000     0.573120000000     0.700380000000     0.6        
Si       Si     0.437440000000     0.512380000000     0.867040000000     0.6        
Si       Si     0.072895000000     0.559145000000     0.533710000000     0.6        
Si       Si     0.484200000000     0.923685000000     0.200380000000     0.6        
Si       Si     0.849800000000     0.187850000000     0.033890000000     0.6        
Si       Si     0.808730000000     0.160580000000     0.367220000000     0.6        
Si       Si     0.836000000000     0.146780000000     0.700560000000     0.6        
Si       Si     0.646550000000     0.308955000000     0.533890000000     0.6        
Si       Si     0.687625000000     0.336225000000     0.867220000000     0.6        
Si       Si     0.660355000000     0.350030000000     0.200560000000     0.6        
Si       Si     0.687625000000     0.350030000000     0.301360000000     0.6        
Si       Si     0.660355000000     0.308955000000     0.968020000000     0.6        
Si       Si     0.646550000000     0.336225000000     0.634690000000     0.6        
Si       Si     0.808730000000     0.146775000000     0.801360000000     0.6        
Si       Si     0.836000000000     0.187855000000     0.468030000000     0.6        
Si       Si     0.849805000000     0.160580000000     0.134690000000     0.6        
Si       Si     0.763745000000     0.206660000000     0.968550000000     0.6        
Si       Si     0.789920000000     0.055715000000     0.301880000000     0.6        
Si       Si     0.940865000000     0.232835000000     0.635210000000     0.6        
Si       Si     0.732610000000     0.290145000000     0.468550000000     0.6        
Si       Si     0.706435000000     0.441095000000     0.801880000000     0.6        
Si       Si     0.555485000000     0.263970000000     0.135210000000     0.6        
Si       Si     0.706435000000     0.263970000000     0.366700000000     0.6        
Si       Si     0.555485000000     0.290145000000     0.033370000000     0.6        
Si       Si     0.732610000000     0.441095000000     0.700030000000     0.6        
Si       Si     0.789920000000     0.232835000000     0.866700000000     0.6        
Si       Si     0.940865000000     0.206660000000     0.533370000000     0.6        
Si       Si     0.763745000000     0.055715000000     0.200030000000     0.6        
Si       Si     0.649280000000     0.196975000000     0.852410000000     0.6        
Si       Si     0.799605000000     0.450935000000     0.185740000000     0.6        
Si       Si     0.545645000000     0.347300000000     0.519080000000     0.6        
Si       Si     0.847075000000     0.299835000000     0.352410000000     0.6        
Si       Si     0.696750000000     0.045870000000     0.685740000000     0.6        
Si       Si     0.950710000000     0.149505000000     0.019080000000     0.6        
Si       Si     0.696750000000     0.149505000000     0.482840000000     0.6        
Si       Si     0.950710000000     0.299835000000     0.149500000000     0.6        
Si       Si     0.847075000000     0.045870000000     0.816170000000     0.6        
Si       Si     0.799605000000     0.347300000000     0.982840000000     0.6        
Si       Si     0.545645000000     0.196975000000     0.649500000000     0.6        
Si       Si     0.649280000000     0.450935000000     0.316170000000     0.6        
Si       Si     0.624235000000     0.168135000000     0.953260000000     0.6        
Si       Si     0.828445000000     0.454730000000     0.286600000000     0.6        
Si       Si     0.541850000000     0.372345000000     0.619930000000     0.6        
Si       Si     0.872115000000     0.328670000000     0.453260000000     0.6        
Si       Si     0.667910000000     0.042075000000     0.786600000000     0.6        
Si       Si     0.954505000000     0.124465000000     0.119930000000     0.6        
Si       Si     0.667910000000     0.124465000000     0.381980000000     0.6        
Si       Si     0.954505000000     0.328670000000     0.048650000000     0.6        
Si       Si     0.872120000000     0.042075000000     0.715320000000     0.6        
Si       Si     0.828445000000     0.372345000000     0.881980000000     0.6        
Si       Si     0.541850000000     0.168135000000     0.548650000000     0.6        
Si       Si     0.624235000000     0.454730000000     0.215320000000     0.6        
Si       Si     0.984195000000     0.059140000000     0.968200000000     0.6        
Si       Si     0.937440000000     0.423685000000     0.301540000000     0.6        
Si       Si     0.572895000000     0.012385000000     0.634870000000     0.6        
Si       Si     0.512155000000     0.437665000000     0.468200000000     0.6        
Si       Si     0.558915000000     0.073120000000     0.801540000000     0.6        
Si       Si     0.923460000000     0.484425000000     0.134870000000     0.6        
Si       Si     0.558915000000     0.484425000000     0.367040000000     0.6        
Si       Si     0.923460000000     0.437665000000     0.033710000000     0.6        
Si       Si     0.512155000000     0.073120000000     0.700380000000     0.6        
Si       Si     0.937440000000     0.012380000000     0.867040000000     0.6        
Si       Si     0.572895000000     0.059145000000     0.533710000000     0.6        
Si       Si     0.984200000000     0.423685000000     0.200380000000     0.6        
Si       Si     0.849800000000     0.687850000000     0.033890000000     0.6        
Si       Si     0.808730000000     0.660580000000     0.367220000000     0.6        
Si       Si     0.836000000000     0.646780000000     0.700560000000     0.6        
Si       Si     0.646550000000     0.808955000000     0.533890000000     0.6        
Si       Si     0.687625000000     0.836225000000     0.867220000000     0.6        
Si       Si     0.660355000000     0.850030000000     0.200560000000     0.6        
Si       Si     0.687625000000     0.850030000000     0.301360000000     0.6        
Si       Si     0.660355000000     0.808955000000     0.968020000000     0.6        
Si       Si     0.646550000000     0.836225000000     0.634690000000     0.6        
Si       Si     0.808730000000     0.646775000000     0.801360000000     0.6        
Si       Si     0.836000000000     0.687855000000     0.468030000000     0.6        
Si       Si     0.849805000000     0.660580000000     0.134690000000     0.6        
Si       Si     0.763745000000     0.706660000000     0.968550000000     0.6        
Si       Si     0.789920000000     0.555715000000     0.301880000000     0.6        
Si       Si     0.940865000000     0.732835000000     0.635210000000     0.6        
Si       Si     0.732610000000     0.790145000000     0.468550000000     0.6        
Si       Si     0.706435000000     0.941095000000     0.801880000000     0.6        
Si       Si     0.555485000000     0.763970000000     0.135210000000     0.6        
Si       Si     0.706435000000     0.763970000000     0.366700000000     0.6        
Si       Si     0.555485000000     0.790145000000     0.033370000000     0.6        
Si       Si     0.732610000000     0.941095000000     0.700030000000     0.6        
Si       Si     0.789920000000     0.732835000000     0.866700000000     0.6        
Si       Si     0.940865000000     0.706660000000     0.533370000000     0.6        
Si       Si     0.763745000000     0.555715000000     0.200030000000     0.6        
Si       Si     0.649280000000     0.696975000000     0.852410000000     0.6        
Si       Si     0.799605000000     0.950935000000     0.185740000000     0.6        
Si       Si     0.545645000000     0.847300000000     0.519080000000     0.6        
Si       Si     0.847075000000     0.799835000000     0.352410000000     0.6        
Si       Si     0.696750000000     0.545870000000     0.685740000000     0.6        
Si       Si     0.950710000000     0.649505000000     0.019080000000     0.6        
Si       Si     0.696750000000     0.649505000000     0.482840000000     0.6        
Si       Si     0.950710000000     0.799835000000     0.149500000000     0.6        
Si       Si     0.847075000000     0.545870000000     0.816170000000     0.6        
Si       Si     0.799605000000     0.847300000000     0.982840000000     0.6        
Si       Si     0.545645000000     0.696975000000     0.649500000000     0.6        
Si       Si     0.649280000000     0.950935000000     0.316170000000     0.6        
Si       Si     0.624235000000     0.668135000000     0.953260000000     0.6        
Si       Si     0.828445000000     0.954730000000     0.286600000000     0.6        
Si       Si     0.541850000000     0.872345000000     0.619930000000     0.6        
Si       Si     0.872115000000     0.828670000000     0.453260000000     0.6        
Si       Si     0.667910000000     0.542075000000     0.786600000000     0.6        
Si       Si     0.954505000000     0.624465000000     0.119930000000     0.6        
Si       Si     0.667910000000     0.624465000000     0.381980000000     0.6        
Si       Si     0.954505000000     0.828670000000     0.048650000000     0.6        
Si       Si     0.872120000000     0.542075000000     0.715320000000     0.6        
Si       Si     0.828445000000     0.872345000000     0.881980000000     0.6        
Si       Si     0.541850000000     0.668135000000     0.548650000000     0.6        
Si       Si     0.624235000000     0.954730000000     0.215320000000     0.6        
Si       Si     0.984195000000     0.559140000000     0.968200000000     0.6        
Si       Si     0.937440000000     0.923685000000     0.301540000000     0.6        
Si       Si     0.572895000000     0.512385000000     0.634870000000     0.6        
Si       Si     0.512155000000     0.937665000000     0.468200000000     0.6        
Si       Si     0.558915000000     0.573120000000     0.801540000000     0.6        
Si       Si     0.923460000000     0.984425000000     0.134870000000     0.6        
Si       Si     0.558915000000     0.984425000000     0.367040000000     0.6        
Si       Si     0.923460000000     0.937665000000     0.033710000000     0.6        
Si       Si     0.512155000000     0.573120000000     0.700380000000     0.6        
Si       Si     0.937440000000     0.512380000000     0.867040000000     0.6        
Si       Si     0.572895000000     0.559145000000     0.533710000000     0.6        
Si       Si     0.984200000000     0.923685000000     0.200380000000     0.6        


